/*--------------------------------*- C++ -*----------------------------------*\
| SHCT->OpenFOAM coupling — auto-generated case                              |
\*---------------------------------------------------------------------------*/
FoamFile
{
    version     2.0;
    format      ascii;
    class       dictionary;
    location    "system";
    object      setFieldsDict;
}
// * * * * * * * * * * * * * * * * * * * * * * * * * * * * * * * * * * * * * //

defaultFieldValues ( volScalarFieldValue alpha.liquid 0 );

regions
(
    boxToCell
    {
        box (-0.16195 -0.16195 -0.01) (0.16195 0.0774 3.8968);
        fieldValues ( volScalarFieldValue alpha.liquid 1 );
    }
);
