/*--------------------------------*- C++ -*----------------------------------*\
| SHCT->OpenFOAM coupling — auto-generated case                              |
\*---------------------------------------------------------------------------*/
FoamFile
{
    version     2.0;
    format      ascii;
    class       uniformDimensionedVectorField;
    location    "constant";
    object      g;
}
// * * * * * * * * * * * * * * * * * * * * * * * * * * * * * * * * * * * * * //

dimensions [0 1 -2 0 0 0 0];
value ( 0 -7.7534 -6.0100 );
